Version 4
SHEET 1 1016 680
WIRE 704 0 624 0
WIRE 704 32 704 0
WIRE 272 80 112 80
WIRE 368 80 352 80
WIRE 112 128 112 80
WIRE 368 128 368 80
WIRE 400 128 368 128
WIRE 624 128 624 0
WIRE 624 128 592 128
WIRE 704 128 704 112
WIRE 720 128 704 128
WIRE 720 144 720 128
WIRE 688 192 592 192
WIRE 736 192 688 192
WIRE 112 208 112 192
WIRE 688 208 688 192
WIRE 880 208 880 192
WIRE 400 224 368 224
WIRE 416 224 400 224
WIRE 112 256 112 208
WIRE 240 256 112 256
WIRE 368 256 368 224
WIRE 368 256 240 256
WIRE 240 336 240 256
WIRE 688 352 688 288
FLAG 240 336 0
FLAG 688 352 0
FLAG 720 144 0
SYMBOL voltage 112 112 R0
WINDOW 3 -109 112 Left 2
WINDOW 123 0 0 Left 0
WINDOW 39 0 0 Left 0
SYMATTR InstName V1
SYMATTR Value PULSE(0 24 0 0 0 0.0005 0.001)
SYMBOL res 368 64 R90
WINDOW 0 0 56 VBottom 2
WINDOW 3 32 56 VTop 2
SYMATTR InstName R1
SYMATTR Value 2.4k
SYMBOL res 704 304 R180
WINDOW 0 36 76 Left 2
WINDOW 3 36 40 Left 2
SYMATTR InstName R2
SYMATTR Value 4.7k
SYMBOL Optos\\4N25 496 192 R0
SYMATTR InstName U1
SYMBOL voltage 704 16 R0
WINDOW 123 0 0 Left 0
WINDOW 39 0 0 Left 0
SYMATTR InstName V2
SYMATTR Value 5
TEXT 320 376 Left 2 !.tran 1
TEXT 16 96 Left 2 ;Input from the sensor
TEXT 744 192 Left 2 ;Output to the MCU
